TS9Bus-PSLF CGMES Solved.EPC
# history file date Thu Jul 30 10:30:07 2026
# present file date Thu Jul 30 10:35:30 2026
# Version 24.3.0
# Exported to Version 24
title
!
comments
!
solution parameters
tap    0    tcul  enabled/disabled
phas   0    ps    enabled/disabled
area   0    area  enabled/disabled
svd    0    svd   enabled/disabled
dctap  0    dc    enabled/disabled
gcd    0    gcd   enabled/disabled
sssc   0    sssc  enabled/disabled
jump  0.000110    jumper threshold
toler   0.1000    newton tolerance
sbase 100.0000    system mva base
!
bus data  [    9]               ty  vsched   volt     angle    ar zone  vmax   vmin   date_in date_out pid L own st  latitude  longitude island    sdmon   vmax1      vmin1      dvmax subst
      1 "13.8 kV Volt"  13.8000 "                                "     0  :  0 1.02499998 1.02499998 4.66475282    1    1 0.0000 0.0000        0        0   0 0   0 0   0.000000   0.000000     0 0    0.00000    0.00000    0.00000 -1 " "     0 -1 " "  0  " " 
      2 "16.5 kV Volt"  16.5000 "                                "     0  :  1 1.03999996 1.03999996 -18.34350949    1    2 0.0000 0.0000        0        0   0 0   0 0   0.000000   0.000000     0 0    0.00000    0.00000    0.00000 -1 " "     0 -1 " "  0  " " 
      3 "18 kV Voltag"  18.0000 "                                "     0  :  2 1.02499998 1.02499998 -13.90466944    1    3 0.0000 0.0000        0        0   0 0   0 0   0.000000   0.000000     0 0    0.00000    0.00000    0.00000 -1 " "     0 -1 " "  0  " " 
      4 "230 kV Volta" 230.0000 "                                "     0  :  1 1.00000000 1.02360845 -18.34350949    1    4 0.0000 0.0000        0        0   0 0   0 0   0.000000   0.000000     0 0    0.00000    0.00000    0.00000 -1 " "     0 -1 " "  0  " " 
      5 "230 kV Volta" 230.0000 "                                "     0  :  1 1.00000000 0.99283040 -20.65586321    1    4 0.0000 0.0000        0        0   0 0   0 0   0.000000   0.000000     0 0    0.00000    0.00000    0.00000 -1 " "     0 -1 " "  0  " " 
      6 "230 kV Volta" 230.0000 "                                "     0  :  1 1.00000000 0.99457806 -15.23328723    1    4 0.0000 0.0000        0        0   0 0   0 0   0.000000   0.000000     0 0    0.00000    0.00000    0.00000 -1 " "     0 -1 " "  0  " " 
      7 "230 kV Volta" 230.0000 "                                "     0  :  1 1.00000000 1.01923442 -13.90466944    1    4 0.0000 0.0000        0        0   0 0   0 0   0.000000   0.000000     0 0    0.00000    0.00000    0.00000 -1 " "     0 -1 " "  0  " " 
      8 "230 kV Volta" 230.0000 "                                "     0  :  1 1.00000000 1.00151205 -10.69494584    1    4 0.0000 0.0000        0        0   0 0   0 0   0.000000   0.000000     0 0    0.00000    0.00000    0.00000 -1 " "     0 -1 " "  0  " " 
      9 "230 kV Volta" 230.0000 "                                "     0  :  1 1.00000000 1.02366364 -0.65173878    1    4 0.0000 0.0000        0        0   0 0   0 0   0.000000   0.000000     0 0    0.00000    0.00000    0.00000 -1 " "     0 -1 " "  0  " " 
branch data  [    6]                                          ck  se  ------------long_id_------------    st resist   react   charge   rate1  rate2  rate3  rate4 aloss  lngth 
      5 "230 kV Volta" 230.00       4 "230 kV Volta" 230.00  "1 "   1 "Bus 5 - Bus 4 Line 1"     :  1  0.010000  0.085000  0.176000    0.00    0.00    0.00    0.00 0.000    1.000 /
   1    1  0.000000  0.000000  0.000000        0        0   0 0  0    0.00    0.00    0.00    0.00   0 0.000   0 0.000   0 0.000   0 0.000   0 0.000   0 0.000   0 0.000   0 0.000  0 0  0  0  0  0.000   0.000000  0.000000  " "     0.00    0.00    0.00    0.00 
      6 "230 kV Volta" 230.00       4 "230 kV Volta" 230.00  "1 "   1 "Bus 6 - Bus 4 Line 1"     :  1  0.017000  0.092000  0.158000    0.00    0.00    0.00    0.00 0.000    1.000 /
   1    1  0.000000  0.000000  0.000000        0        0   0 0  0    0.00    0.00    0.00    0.00   0 0.000   0 0.000   0 0.000   0 0.000   0 0.000   0 0.000   0 0.000   0 0.000  0 0  0  0  0  0.000   0.000000  0.000000  " "     0.00    0.00    0.00    0.00 
      7 "230 kV Volta" 230.00       5 "230 kV Volta" 230.00  "1 "   1 "Bus 7 - Bus 5 Line 1"     :  1  0.032000  0.161000  0.306000    0.00    0.00    0.00    0.00 0.000    1.000 /
   1    1  0.000000  0.000000  0.000000        0        0   0 0  0    0.00    0.00    0.00    0.00   0 0.000   0 0.000   0 0.000   0 0.000   0 0.000   0 0.000   0 0.000   0 0.000  0 0  0  0  0  0.000   0.000000  0.000000  " "     0.00    0.00    0.00    0.00 
      7 "230 kV Volta" 230.00       8 "230 kV Volta" 230.00  "1 "   1 "Bus 7 - Bus 8 Line 1"     :  1  0.008500  0.072000  0.149000    0.00    0.00    0.00    0.00 0.000    1.000 /
   1    1  0.000000  0.000000  0.000000        0        0   0 0  0    0.00    0.00    0.00    0.00   0 0.000   0 0.000   0 0.000   0 0.000   0 0.000   0 0.000   0 0.000   0 0.000  0 0  0  0  0  0.000   0.000000  0.000000  " "     0.00    0.00    0.00    0.00 
      8 "230 kV Volta" 230.00       9 "230 kV Volta" 230.00  "1 "   1 "Bus 8 - Bus 9 Line 1"     :  1  0.011900  0.100800  0.209000    0.00    0.00    0.00    0.00 0.000    1.000 /
   1    1  0.000000  0.000000  0.000000        0        0   0 0  0    0.00    0.00    0.00    0.00   0 0.000   0 0.000   0 0.000   0 0.000   0 0.000   0 0.000   0 0.000   0 0.000  0 0  0  0  0  0.000   0.000000  0.000000  " "     0.00    0.00    0.00    0.00 
      9 "230 kV Volta" 230.00       6 "230 kV Volta" 230.00  "1 "   1 "Bus 9 - Bus 6 Line 1"     :  1  0.039000  0.170000  0.358000    0.00    0.00    0.00    0.00 0.000    1.000 /
   1    1  0.000000  0.000000  0.000000        0        0   0 0  0    0.00    0.00    0.00    0.00   0 0.000   0 0.000   0 0.000   0 0.000   0 0.000   0 0.000   0 0.000   0 0.000  0 0  0  0  0  0.000   0.000000  0.000000  " "     0.00    0.00    0.00    0.00 
transformer data  [   3]                                     ck   ------------long_id_------------     st ty --no---    reg_name          zt         int                           tert                      ar zone  tbase   ps_r    ps_x    pt_r    pt_x    ts_r    ts_x
      7 "230 kV Volta" 230.00       3 "18 kV Voltag"  18.00  "  "   "                                        "    :   1  1       0 "            "   0.00  0       0 "            "   0.00       0 "            "   0.00    1    1 100.000000 3.780718e-09 3.144140e-02 0.000000e+00 0.000000e+00 0.000000e+00 0.000000e+00 /
 230.000000 18.000000  0.000000  0.000000 0.000000e+00 0.000000e+00    0.0    0.0    0.0    0.0 0.000  1.100000  0.900000  1.100000  0.900000  0.000000  1.000000  1.000000  1.000000  0.000000        0        0   0 1     0.0    0.0    0.0    0.0 /
   0 0.000   0 0.000   0 0.000   0 0.000   0 0.000   0 0.000   0 0.000   0 0.000  0 /
   0.000000   0.000000  0.000000  0.000000     0.0    0.0    0.0     0.0    0.0    0.0 0.000 0.000  0  0  0 0.0000 0.0000 0  0  0   0.000000   0.000000  0.000000  0.000000  " "   0.000000 /
   0.00    0.00    0.00    0.00    0.00    0.00    0.00    0.00    0.00    0.00    0.00    0.00    0.00 /
    0.00    0.00    0.00    0.00    0.00    0.00    0.00    0.00    0.00 
      4 "230 kV Volta" 230.00       2 "16.5 kV Volt"  16.50  "  "   "                                        "    :   1  1       0 "            "   0.00  0       0 "            "   0.00       0 "            "   0.00    1    1 100.000000 3.780718e-09 2.894822e-02 0.000000e+00 0.000000e+00 0.000000e+00 0.000000e+00 /
 230.000000 16.500000  0.000000  0.000000 0.000000e+00 0.000000e+00    0.0    0.0    0.0    0.0 0.000  1.100000  0.900000  1.100000  0.900000  0.000000  1.000000  1.000000  1.000000  0.000000        0        0   0 1     0.0    0.0    0.0    0.0 /
   0 0.000   0 0.000   0 0.000   0 0.000   0 0.000   0 0.000   0 0.000   0 0.000  0 /
   0.000000   0.000000  0.000000  0.000000     0.0    0.0    0.0     0.0    0.0    0.0 0.000 0.000  0  0  0 0.0000 0.0000 0  0  0   0.000000   0.000000  0.000000  0.000000  " "   0.000000 /
   0.00    0.00    0.00    0.00    0.00    0.00    0.00    0.00    0.00    0.00    0.00    0.00    0.00 /
    0.00    0.00    0.00    0.00    0.00    0.00    0.00    0.00    0.00 
      9 "230 kV Volta" 230.00       1 "13.8 kV Volt"  13.80  "  "   "                                        "    :   1  1       0 "            "   0.00  0       0 "            "   0.00       0 "            "   0.00    1    1 100.000000 3.780718e-09 2.940548e-02 0.000000e+00 0.000000e+00 0.000000e+00 0.000000e+00 /
 230.000000 13.800000  0.000000  0.000000 0.000000e+00 0.000000e+00    0.0    0.0    0.0    0.0 0.000  1.100000  0.900000  1.100000  0.900000  0.000000  1.000000  1.000000  1.000000  0.000000        0        0   0 1     0.0    0.0    0.0    0.0 /
   0 0.000   0 0.000   0 0.000   0 0.000   0 0.000   0 0.000   0 0.000   0 0.000  0 /
   0.000000   0.000000  0.000000  0.000000     0.0    0.0    0.0     0.0    0.0    0.0 0.000 0.000  0  0  0 0.0000 0.0000 0  0  0   0.000000   0.000000  0.000000  0.000000  " "   0.000000 /
   0.00    0.00    0.00    0.00    0.00    0.00    0.00    0.00    0.00    0.00    0.00    0.00    0.00 /
    0.00    0.00    0.00    0.00    0.00    0.00    0.00    0.00    0.00 
generator data  [   3]         id   ------------long_id_------------    st ---no--     reg_name           prf  qrf  ar zone   pgen   pmax   pmin   qgen   qmax   qmin   mbase  cmp_r cmp_x gen_r gen_x           hbus                         tbus                date_in date_out pid N
      2 "16.5 kV Volt"  16.50 "1 "  "Bus1 Generator 1"    :  1       2 "16.5 kV Volt"  16.50  1.000000  1.000000   1    1  -0.000000 1000.000000   0.000000 58.888470 9900.000000 -9900.000000 1000.0000 0.000 0.000 0.000000 0.000000       1 "13.8 kV Volt"  13.80       1 "13.8 kV Volt"  13.80         0        0   0 1 /
 0.0000 0.0000 1.0000   0 0.000   0 0.000   0 0.000   0 0.000   0 0.000   0 0.000   0 0.000   0 0.000    0   0   0   0   0   0   0    0.0 0 0  0.000000    1  " "  0  0   0   0   0   0   0.000000 /
  0   0  0.000000   0  0.000000   0.000000  " "     0     0   0.000000   0.000000 
      3 "18 kV Voltag"  18.00 "1 "  "Bus 2 Generator 1"    :  1       3 "18 kV Voltag"  18.00  1.000000  1.000000   1    1  -0.000000 1000.000000   0.000000 18.795994 9900.000000 -9900.000000 1000.0000 0.000 0.000 0.000000 0.000000       1 "13.8 kV Volt"  13.80       1 "13.8 kV Volt"  13.80         0        0   0 1 /
 0.0000 0.0000 1.0000   0 0.000   0 0.000   0 0.000   0 0.000   0 0.000   0 0.000   0 0.000   0 0.000    0   0   0   0   0   0   0    0.0 0 0  0.000000    1  " "  0  0   0   0   0   0   0.000000 /
  0   0  0.000000   0  0.000000   0.000000  " "     0     0   0.000000   0.000000 
      1 "13.8 kV Volt"  13.80 "1 "  "Bus 3 Generator 1"    :  1       1 "13.8 kV Volt"  13.80  1.000000  1.000000   1    1 330.622162 1000.000000   0.000000 20.008547 9900.000000 -9900.000000 1000.0000 0.000 0.000 0.000000 0.000000       1 "13.8 kV Volt"  13.80       1 "13.8 kV Volt"  13.80         0        0   0 1 /
 0.0000 0.0000 1.0000   0 0.000   0 0.000   0 0.000   0 0.000   0 0.000   0 0.000   0 0.000   0 0.000    0   0   0   0   0   0   0    0.0 0 0  0.000000    1  " "  0  0   0   0   0   0   0.000000 /
  0   0  0.000000   0  0.000000   0.000000  " "     0     0   0.000000   0.000000 
load data  [   3]             id   ------------long_id_------------     st      mw      mvar    mw_i    mvar_i  mw_z      mvar_z  ar zone  date_in date_out pid N own M nonc  thr_bus flg
      5 "230 kV Volta" 230.00 "1 "   "Bus 5 Load 1"  :  1 125.000000 50.000000 0.000000 0.000000 0.000000 0.000000   1    1        0        0   0 1   0 0    0       1 "13.8 kV Volt"  13.80   0 "        "     1  0      0 "            "   0.00 "  " 0.000000 0.000000 0 0 0.000000 0.000000 0 0  0.000000  " "  0.000000 0.000000 0.000000 0.000000 0.000000 0.000000 0.000000 0.000000 0.000000 0.000000 0.000000 0
      6 "230 kV Volta" 230.00 "1 "   "Bus 6 Load 1"  :  1 90.000000 30.000002 0.000000 0.000000 0.000000 0.000000   1    1        0        0   0 1   0 0    0       1 "13.8 kV Volt"  13.80   0 "        "     1  0      0 "            "   0.00 "  " 0.000000 0.000000 0 0 0.000000 0.000000 0 0  0.000000  " "  0.000000 0.000000 0.000000 0.000000 0.000000 0.000000 0.000000 0.000000 0.000000 0.000000 0.000000 0
      8 "230 kV Volta" 230.00 "1 "   "Bus 8 Load 1"  :  1 100.000000 35.000000 0.000000 0.000000 0.000000 0.000000   1    1        0        0   0 1   0 0    0       1 "13.8 kV Volt"  13.80   0 "        "     1  0      0 "            "   0.00 "  " 0.000000 0.000000 0 0 0.000000 0.000000 0 0  0.000000  " "  0.000000 0.000000 0.000000 0.000000 0.000000 0.000000 0.000000 0.000000 0.000000 0.000000 0.000000 0
area data  [  1]                            swing  desired    tol      pnet     qnet
    1 "CGMES Area 1                    "       2    0.000    0.000   15.622  -17.307 0  0  0  " "   0.000000 
zone data  [   1]                            pnet     qnet
    1 "Zone 1                          "  330.622   20.009 0 
end
#
#
#
#This file was written by GE Vernova.
#  PSLF load flow program on Thu Jul 30 10:35:30 2026
#  using the following solution parameters:
#
#  TCUL tap ratio adjustment off
#
#  Automatic SVD control off
#
#  AREA interchange control off
#
#  Automatic phase shifter adjustment off
#
#  DC converter control off
#
#  GCD control off
#  SSSC control off
#
#  Jumper Threshold Impedance   0.0001
#
#  Newton Solution Tolerance    0.1000
#
#
#     template for epc format
#
#datamaintainer data  [    0] 
#
#substation data  [    0]  latitude  longitude  rdc  "datamaintainer"
#
#block data  [    0]  "datamaintainer"
#
#plant data  [    0]  "datamaintainer"
#
#bus data  [    9]            ty  vsched   volt     angle    ar zone  vmax   vmin   date_in date_out pid L own st isol lat long sdmon vmax1 vmin1 dvmax
#
#branch data  [    6]                                ck  se  ------------long_id_------------    st resist   react   charge   rate1  rate2  rate3  rate4 aloss  lngth 
#ar zone trangi tap_f tap_t  date_in date_out pid N ty  rate5  rate6  rate7  rate8 ow1 part1 ow2 part2 ow3 part3 ow4 part4 ow5 part5 ow6 part6 ow7 part7 ow8 part8 ohm sdmon
#
#transformer data  [   3]                              ck   ------------long_id_------------    st ty --no---    reg_name          zt         int                           tert               ar zone  tbase   ps_r    ps_x    pt_r    pt_x    ts_r    ts_x
#vnomp -vnoms -vnomt anglep -gmag-- -bmag--  rate1  rate2  rate3  rate4 -loss  -tmax- -tmin- -vmax- -vmin- -step-- -tap-- -ftapp -ftaps -ftapt  date_in date_out pid N   rate5  rate6  rate7  rate8
#ow1 part1 ow2 part2 ow3 part3 ow4 part4 ow5 part5 ow6 part6 ow7 part7 ow8 part8 ohm
#tbasept tbasets angls anglt rates1 rates2 rates3 ratet1 ratet2 ratet3 alosss alosst rxunits gbunits tunits rcomp xcomp sdmon
#
#generator data  [   3]    id   ------------long_id_------------    st ---no--     reg_name       prf  qrf  ar zone   pgen   pmax   pmin   qgen   qmax   qmin   mbase   cmp_r cmp_x gen_r gen_x           hbus                    tbus           date_in date_out pid N
#-rtran -xtran -gtap- ow1 part1 ow2 part2 ow3 part3 ow4 part4 ow5 part5 ow6 part6 ow7 part7 ow8 part8 gov agc disp basld air turb qtab pmax2 sdmon
#
#ppc data  [    0] no  st   ---no--     reg_name   QAuto  Vdev  Qdb  Qmax  Qmin  Vlow  Vdblow  Vdbhigh  Vhigh  PF ---Plim--    Plim_name  Pmax  Pmin  Slope  Qvreg  Br_Mvar_Q LID  DMaint'r
#
#load data  [   3]          id   ------------long_id_------------     st      mw      mvar    mw_i    mvar_i  mw_z      mvar_z  ar zone  date_in date_out pid N own sdmon nonc ithbus ithflag
#
#shunt data  [   0]         id                               ck  se  long_id_     st ar zone    pu_mw  pu_mvar    date_in date_out pid N own part1 own part2 own part3 own part4 --num--  --name--  --kv--
#
#svd data  [  0]            id   ------------long_id_------------    st ty --no---     reg_name       ar zone      g      b  min_c  max_c  vband   bmin   bmax  date_in date_out pid N own part1 own part2 own part3 own part4
#N1 -step- N2 -step- N3 -step- N4 -step- N5 -step- N6 -step- N7 -step- N8 -step-
#
#area data  [  1]                           swing  desired    tol      pnet     qnet
#
#zone data  [   1]                           pnet     qnet
#
#interface data  [   0]                     pnet     qnet   -rate1- -rate2- -rate3- -rate4- 
#
#interface branch data  [    0]                      ck      -i_no-  part_fac  
#
#dc bus data  [  0]           ty ar  zone   vsched     dc_volt  date_in date_out pid own
#
#dc line data  [  0]                                  ck   ------------long_id_------------     st ar zone   resist   react    capac   rate1  rate2  rate3  rate4  len  aloss    date_in date_out PID N  rate5  rate6  rate7  rate8
#len-- -loss-  date_in date_out pid N  rate5  rate6  rate7  rate8 ow1 part1 ow2 part2 ow3 part3 ow4 part4 ow5 part5 ow6 part6 ow7 part7 ow8 part8
#
#dc converter data  [  0]                             id   ------------long_id_------------    st ty md nb fg  --no---           reg   ar zone  date_in date_out
#-idc-- -vdc-- -pac-- -qac-- p_schd i_schd v_schd i_marg -rcomp vmin_p vmin_c vac_bs vdc_bs
#-alpha al_min al_max -gamma ga_min ga_max vdiode -xcomm r_tran x_tran
#-tbase tapfac tapfdc tap_ac tap_dc -tmin- -tmax- -tstep -vtmax -vtmin -loss- i_rate x_smoot pid N
#ow1 part1 ow2 part2 ow3 part3 ow4 part4 ow5 part5 ow6 part6 ow7 part7 ow8 part8
#
#vs converter data  [  0]                                        id   ------------long_id_------------ st reg           ar zn dmd amd  dcset acset
# --aloss-- --bloss-- -minloss- ---smax-- ---imax-- ---qmax-- ---qmin-- ---pwf---  date_in   date_out
# tp dcs  ---qmx--- ---qmn--- -psetlim- ---pdc--- ---idc--- ---pac--- ---qac--- pid stn
#ow1 part1 ow2 part2 ow3 part3 ow4 part4 ow5 part5 ow6 part6 ow7 part7 ow8 part8 sdmon
#
#z table data  [ 0]  -tap2 fact2 -tap3 fact3 -tap4 fact4 -tap5 fact5 -tap6 fact6 -tap7 fact7 -tap8 fact8 -tap9 fact9 tap10 fac10 tap11 fac11
#
#gcd data  [   0]                     
#
#sssc data  [   0]                      
#
#transaction data  [    0]             st    sch_mw   sch_mvar  flag stn pid         transaction name
#
#owner data  [    0]   owner name           s name       net_mw   net_mvar     sch_mw   sch_mvar  ar
#
#motor data  [    0]          ID   ------------long_id_------------  S -ar zone own flag  --type-- 
#mbase- -pelec- -qelec- --pf--- --ls--- --tp0-- --lp--- -tpp0-- --lpp-- --ra--- ---h--- --rt--- --lt--- --bcap-
#zppr-- -zppx-- -alt0-- -alt1-- -blt-- -alt2-- -blt2--  date_in date_out pid N
#
#line   data  [    0]                                ck  se  --long_id_--    st  pole name  length w1  ---cond name---   w2  ---cond name---
#w3 ---cond name--- w4 ---cond name--- w5 ---cond name--- area zone nc rating  date_in date_out pid N
#ow1 part1 ow2 part2 ow3 part3 ow4 part4 ow5 part5 ow6 part6 ow7 part7 ow8 part8
#--r--- --x--- --char-- --r0-- --x0--- -char0-- ampc1 ampc2 ampc3 ampc4 ampc5 -loss
#
#qtable data     [   0]   id     p[0]   qmx[0]  qmn[0]  ....  
#
#ba data  [  0]                           swing  desired    tol      pnet     qnet
#
#injection group data  [  0]  "datamaintainer" 
#
#injection group element data  [  0]  prfcalcopt prf value
#
#voltcntgrp data  [  0]  st 
#
#voltcntgrpelem data  [  0] 
#
#interface element  [  0]  pf 
